32

C 	    0.20408 	    0.30066 	   -0.48458  
C 	   -0.20408 	   -0.30066 	    0.48458  
H 	    0.56176 	    0.82760 	   -1.33386  
H 	   -0.56176 	   -0.82760 	    1.33386  
C 	    6.52199 	   10.47396 	   10.60888  
C 	    5.73801 	   10.76098 	    9.73112  
H 	    7.20899 	   10.22244 	   11.37807  
H 	    5.05101 	   11.01250 	    8.96193  
C 	   17.99990 	   11.04070 	   10.35860  
C 	   18.78010 	   10.19424 	    9.98140  
H 	   17.31622 	   11.78245 	   10.68914  
H 	   19.46378 	    9.45249 	    9.65086  
C 	   18.49513 	   10.02369 	    0.05688  
C 	   18.28487 	   11.21126 	   -0.05688  
H 	   18.67938 	    8.98302 	    0.15656  
H 	   18.10062 	   12.25192 	   -0.15656  
C 	    6.70749 	   10.67682 	   -0.17278  
C 	    5.55251 	   10.55812 	    0.17278  
H 	    7.71960 	   10.78085 	   -0.47559  
H 	    4.54040 	   10.45409 	    0.47559  
C 	   12.79133 	   -0.09416 	   10.44512  
C 	   11.72867 	    0.09416 	    9.89488  
H 	   13.72253 	   -0.25920 	   10.92730  
H 	   10.79747 	    0.25920 	    9.41270  
C 	   -0.02430 	    0.11441 	    9.57570  
C 	    0.02430 	   -0.11441 	   10.76430  
H 	   -0.06690 	    0.31493 	    8.53414  
H 	    0.06690 	   -0.31493 	   11.80586  
C 	   12.08675 	    0.34667 	    0.46548  
C 	   12.43325 	   -0.34667 	   -0.46548  
H 	   11.78311 	    0.95424 	    1.28128  
H 	   12.73689 	   -0.95424 	   -1.28128  
